* NGSPICE file created from mul_32.ext - technology: sky130A

* Black-box entry subcircuit for sky130_fd_sc_hd__fill_1 abstract view
.subckt sky130_fd_sc_hd__fill_1 VGND VNB VPB VPWR
.ends

* Black-box entry subcircuit for sky130_fd_sc_hd__and4_1 abstract view
.subckt sky130_fd_sc_hd__and4_1 A B C D VGND VNB VPB VPWR X
.ends

* Black-box entry subcircuit for sky130_fd_sc_hd__a21oi_1 abstract view
.subckt sky130_fd_sc_hd__a21oi_1 A1 A2 B1 VGND VNB VPB VPWR Y
.ends

* Black-box entry subcircuit for sky130_fd_sc_hd__nand2b_1 abstract view
.subckt sky130_fd_sc_hd__nand2b_1 A_N B VGND VNB VPB VPWR Y
.ends

* Black-box entry subcircuit for sky130_fd_sc_hd__fill_2 abstract view
.subckt sky130_fd_sc_hd__fill_2 VGND VNB VPB VPWR
.ends

* Black-box entry subcircuit for sky130_fd_sc_hd__nand3_1 abstract view
.subckt sky130_fd_sc_hd__nand3_1 A B C VGND VNB VPB VPWR Y
.ends

* Black-box entry subcircuit for sky130_fd_sc_hd__nand3_2 abstract view
.subckt sky130_fd_sc_hd__nand3_2 A B C VGND VNB VPB VPWR Y
.ends

* Black-box entry subcircuit for sky130_fd_sc_hd__a22o_1 abstract view
.subckt sky130_fd_sc_hd__a22o_1 A1 A2 B1 B2 VGND VNB VPB VPWR X
.ends

* Black-box entry subcircuit for sky130_fd_sc_hd__tapvpwrvgnd_1 abstract view
.subckt sky130_fd_sc_hd__tapvpwrvgnd_1 VGND VPWR
.ends

* Black-box entry subcircuit for sky130_fd_sc_hd__or4bb_1 abstract view
.subckt sky130_fd_sc_hd__or4bb_1 A B C_N D_N VGND VNB VPB VPWR X
.ends

* Black-box entry subcircuit for sky130_fd_sc_hd__o21ai_1 abstract view
.subckt sky130_fd_sc_hd__o21ai_1 A1 A2 B1 VGND VNB VPB VPWR Y
.ends

* Black-box entry subcircuit for sky130_fd_sc_hd__and3_1 abstract view
.subckt sky130_fd_sc_hd__and3_1 A B C VGND VNB VPB VPWR X
.ends

* Black-box entry subcircuit for sky130_fd_sc_hd__decap_8 abstract view
.subckt sky130_fd_sc_hd__decap_8 VGND VNB VPB VPWR
.ends

* Black-box entry subcircuit for sky130_fd_sc_hd__a21bo_1 abstract view
.subckt sky130_fd_sc_hd__a21bo_1 A1 A2 B1_N VGND VNB VPB VPWR X
.ends

* Black-box entry subcircuit for sky130_ef_sc_hd__decap_12 abstract view
.subckt sky130_ef_sc_hd__decap_12 VPWR VGND VPB VNB
.ends

* Black-box entry subcircuit for sky130_fd_sc_hd__or2_1 abstract view
.subckt sky130_fd_sc_hd__or2_1 A B VGND VNB VPB VPWR X
.ends

* Black-box entry subcircuit for sky130_fd_sc_hd__o211ai_2 abstract view
.subckt sky130_fd_sc_hd__o211ai_2 A1 A2 B1 C1 VGND VNB VPB VPWR Y
.ends

* Black-box entry subcircuit for sky130_fd_sc_hd__xor2_1 abstract view
.subckt sky130_fd_sc_hd__xor2_1 A B VGND VNB VPB VPWR X
.ends

* Black-box entry subcircuit for sky130_fd_sc_hd__a21o_1 abstract view
.subckt sky130_fd_sc_hd__a21o_1 A1 A2 B1 VGND VNB VPB VPWR X
.ends

* Black-box entry subcircuit for sky130_fd_sc_hd__nor3_1 abstract view
.subckt sky130_fd_sc_hd__nor3_1 A B C VGND VNB VPB VPWR Y
.ends

* Black-box entry subcircuit for sky130_fd_sc_hd__nand2_1 abstract view
.subckt sky130_fd_sc_hd__nand2_1 A B VGND VNB VPB VPWR Y
.ends

* Black-box entry subcircuit for sky130_fd_sc_hd__xnor2_1 abstract view
.subckt sky130_fd_sc_hd__xnor2_1 A B VGND VNB VPB VPWR Y
.ends

* Black-box entry subcircuit for sky130_fd_sc_hd__decap_4 abstract view
.subckt sky130_fd_sc_hd__decap_4 VGND VNB VPB VPWR
.ends

* Black-box entry subcircuit for sky130_fd_sc_hd__nor2_1 abstract view
.subckt sky130_fd_sc_hd__nor2_1 A B VGND VNB VPB VPWR Y
.ends

* Black-box entry subcircuit for sky130_fd_sc_hd__o21ba_1 abstract view
.subckt sky130_fd_sc_hd__o21ba_1 A1 A2 B1_N VGND VNB VPB VPWR X
.ends

* Black-box entry subcircuit for sky130_fd_sc_hd__and2b_1 abstract view
.subckt sky130_fd_sc_hd__and2b_1 A_N B VGND VNB VPB VPWR X
.ends

* Black-box entry subcircuit for sky130_fd_sc_hd__decap_6 abstract view
.subckt sky130_fd_sc_hd__decap_6 VGND VNB VPB VPWR
.ends

* Black-box entry subcircuit for sky130_fd_sc_hd__decap_3 abstract view
.subckt sky130_fd_sc_hd__decap_3 VGND VNB VPB VPWR
.ends

* Black-box entry subcircuit for sky130_fd_sc_hd__a211o_1 abstract view
.subckt sky130_fd_sc_hd__a211o_1 A1 A2 B1 C1 VGND VNB VPB VPWR X
.ends

* Black-box entry subcircuit for sky130_fd_sc_hd__a211oi_4 abstract view
.subckt sky130_fd_sc_hd__a211oi_4 A1 A2 B1 C1 VGND VNB VPB VPWR Y
.ends

* Black-box entry subcircuit for sky130_fd_sc_hd__o2bb2a_1 abstract view
.subckt sky130_fd_sc_hd__o2bb2a_1 A1_N A2_N B1 B2 VGND VNB VPB VPWR X
.ends

* Black-box entry subcircuit for sky130_fd_sc_hd__a22oi_2 abstract view
.subckt sky130_fd_sc_hd__a22oi_2 A1 A2 B1 B2 VGND VNB VPB VPWR Y
.ends

* Black-box entry subcircuit for sky130_fd_sc_hd__and4bb_1 abstract view
.subckt sky130_fd_sc_hd__and4bb_1 A_N B_N C D VGND VNB VPB VPWR X
.ends

* Black-box entry subcircuit for sky130_fd_sc_hd__o22ai_1 abstract view
.subckt sky130_fd_sc_hd__o22ai_1 A1 A2 B1 B2 VGND VNB VPB VPWR Y
.ends

* Black-box entry subcircuit for sky130_fd_sc_hd__o21a_1 abstract view
.subckt sky130_fd_sc_hd__o21a_1 A1 A2 B1 VGND VNB VPB VPWR X
.ends

* Black-box entry subcircuit for sky130_fd_sc_hd__or3_1 abstract view
.subckt sky130_fd_sc_hd__or3_1 A B C VGND VNB VPB VPWR X
.ends

* Black-box entry subcircuit for sky130_fd_sc_hd__nor3_2 abstract view
.subckt sky130_fd_sc_hd__nor3_2 A B C VGND VNB VPB VPWR Y
.ends

* Black-box entry subcircuit for sky130_fd_sc_hd__o21bai_1 abstract view
.subckt sky130_fd_sc_hd__o21bai_1 A1 A2 B1_N VGND VNB VPB VPWR Y
.ends

* Black-box entry subcircuit for sky130_fd_sc_hd__and2_1 abstract view
.subckt sky130_fd_sc_hd__and2_1 A B VGND VNB VPB VPWR X
.ends

* Black-box entry subcircuit for sky130_fd_sc_hd__inv_2 abstract view
.subckt sky130_fd_sc_hd__inv_2 A VGND VNB VPB VPWR Y
.ends

* Black-box entry subcircuit for sky130_fd_sc_hd__o21ai_2 abstract view
.subckt sky130_fd_sc_hd__o21ai_2 A1 A2 B1 VGND VNB VPB VPWR Y
.ends

* Black-box entry subcircuit for sky130_fd_sc_hd__buf_2 abstract view
.subckt sky130_fd_sc_hd__buf_2 A VGND VNB VPB VPWR X
.ends

* Black-box entry subcircuit for sky130_fd_sc_hd__clkbuf_2 abstract view
.subckt sky130_fd_sc_hd__clkbuf_2 A VGND VNB VPB VPWR X
.ends

* Black-box entry subcircuit for sky130_fd_sc_hd__nand4_1 abstract view
.subckt sky130_fd_sc_hd__nand4_1 A B C D VGND VNB VPB VPWR Y
.ends

* Black-box entry subcircuit for sky130_fd_sc_hd__xnor2_2 abstract view
.subckt sky130_fd_sc_hd__xnor2_2 A B VGND VNB VPB VPWR Y
.ends

* Black-box entry subcircuit for sky130_fd_sc_hd__a211oi_1 abstract view
.subckt sky130_fd_sc_hd__a211oi_1 A1 A2 B1 C1 VGND VNB VPB VPWR Y
.ends

* Black-box entry subcircuit for sky130_fd_sc_hd__nor4_1 abstract view
.subckt sky130_fd_sc_hd__nor4_1 A B C D VGND VNB VPB VPWR Y
.ends

* Black-box entry subcircuit for sky130_fd_sc_hd__a21boi_1 abstract view
.subckt sky130_fd_sc_hd__a21boi_1 A1 A2 B1_N VGND VNB VPB VPWR Y
.ends

* Black-box entry subcircuit for sky130_fd_sc_hd__a31o_1 abstract view
.subckt sky130_fd_sc_hd__a31o_1 A1 A2 A3 B1 VGND VNB VPB VPWR X
.ends

* Black-box entry subcircuit for sky130_fd_sc_hd__clkbuf_1 abstract view
.subckt sky130_fd_sc_hd__clkbuf_1 A VGND VNB VPB VPWR X
.ends

* Black-box entry subcircuit for sky130_fd_sc_hd__nand4_2 abstract view
.subckt sky130_fd_sc_hd__nand4_2 A B C D VGND VNB VPB VPWR Y
.ends

* Black-box entry subcircuit for sky130_fd_sc_hd__a211oi_2 abstract view
.subckt sky130_fd_sc_hd__a211oi_2 A1 A2 B1 C1 VGND VNB VPB VPWR Y
.ends

* Black-box entry subcircuit for sky130_fd_sc_hd__o211a_1 abstract view
.subckt sky130_fd_sc_hd__o211a_1 A1 A2 B1 C1 VGND VNB VPB VPWR X
.ends

* Black-box entry subcircuit for sky130_fd_sc_hd__o211ai_4 abstract view
.subckt sky130_fd_sc_hd__o211ai_4 A1 A2 B1 C1 VGND VNB VPB VPWR Y
.ends

* Black-box entry subcircuit for sky130_fd_sc_hd__a311o_4 abstract view
.subckt sky130_fd_sc_hd__a311o_4 A1 A2 A3 B1 C1 VGND VNB VPB VPWR X
.ends

* Black-box entry subcircuit for sky130_fd_sc_hd__diode_2 abstract view
.subckt sky130_fd_sc_hd__diode_2 DIODE VGND VNB VPB VPWR
.ends

* Black-box entry subcircuit for sky130_fd_sc_hd__nor2_2 abstract view
.subckt sky130_fd_sc_hd__nor2_2 A B VGND VNB VPB VPWR Y
.ends

* Black-box entry subcircuit for sky130_fd_sc_hd__a22oi_1 abstract view
.subckt sky130_fd_sc_hd__a22oi_1 A1 A2 B1 B2 VGND VNB VPB VPWR Y
.ends

* Black-box entry subcircuit for sky130_fd_sc_hd__o211ai_1 abstract view
.subckt sky130_fd_sc_hd__o211ai_1 A1 A2 B1 C1 VGND VNB VPB VPWR Y
.ends

* Black-box entry subcircuit for sky130_fd_sc_hd__clkbuf_4 abstract view
.subckt sky130_fd_sc_hd__clkbuf_4 A VGND VNB VPB VPWR X
.ends

* Black-box entry subcircuit for sky130_fd_sc_hd__or3b_1 abstract view
.subckt sky130_fd_sc_hd__or3b_1 A B C_N VGND VNB VPB VPWR X
.ends

* Black-box entry subcircuit for sky130_fd_sc_hd__o211a_2 abstract view
.subckt sky130_fd_sc_hd__o211a_2 A1 A2 B1 C1 VGND VNB VPB VPWR X
.ends

* Black-box entry subcircuit for sky130_fd_sc_hd__or3b_2 abstract view
.subckt sky130_fd_sc_hd__or3b_2 A B C_N VGND VNB VPB VPWR X
.ends

* Black-box entry subcircuit for sky130_fd_sc_hd__nand3_4 abstract view
.subckt sky130_fd_sc_hd__nand3_4 A B C VGND VNB VPB VPWR Y
.ends

* Black-box entry subcircuit for sky130_fd_sc_hd__a21oi_2 abstract view
.subckt sky130_fd_sc_hd__a21oi_2 A1 A2 B1 VGND VNB VPB VPWR Y
.ends

* Black-box entry subcircuit for sky130_fd_sc_hd__or3_2 abstract view
.subckt sky130_fd_sc_hd__or3_2 A B C VGND VNB VPB VPWR X
.ends

* Black-box entry subcircuit for sky130_fd_sc_hd__nand2b_2 abstract view
.subckt sky130_fd_sc_hd__nand2b_2 A_N B VGND VNB VPB VPWR Y
.ends

* Black-box entry subcircuit for sky130_fd_sc_hd__a2bb2oi_1 abstract view
.subckt sky130_fd_sc_hd__a2bb2oi_1 A1_N A2_N B1 B2 VGND VNB VPB VPWR Y
.ends

* Black-box entry subcircuit for sky130_fd_sc_hd__dlymetal6s2s_1 abstract view
.subckt sky130_fd_sc_hd__dlymetal6s2s_1 A VGND VNB VPB VPWR X
.ends

* Black-box entry subcircuit for sky130_fd_sc_hd__a2bb2o_1 abstract view
.subckt sky130_fd_sc_hd__a2bb2o_1 A1_N A2_N B1 B2 VGND VNB VPB VPWR X
.ends

* Black-box entry subcircuit for sky130_fd_sc_hd__a31oi_1 abstract view
.subckt sky130_fd_sc_hd__a31oi_1 A1 A2 A3 B1 VGND VNB VPB VPWR Y
.ends

* Black-box entry subcircuit for sky130_fd_sc_hd__a211o_2 abstract view
.subckt sky130_fd_sc_hd__a211o_2 A1 A2 B1 C1 VGND VNB VPB VPWR X
.ends

* Black-box entry subcircuit for sky130_fd_sc_hd__a41o_1 abstract view
.subckt sky130_fd_sc_hd__a41o_1 A1 A2 A3 A4 B1 VGND VNB VPB VPWR X
.ends

* Black-box entry subcircuit for sky130_fd_sc_hd__a21o_2 abstract view
.subckt sky130_fd_sc_hd__a21o_2 A1 A2 B1 VGND VNB VPB VPWR X
.ends

* Black-box entry subcircuit for sky130_fd_sc_hd__o22a_1 abstract view
.subckt sky130_fd_sc_hd__o22a_1 A1 A2 B1 B2 VGND VNB VPB VPWR X
.ends

* Black-box entry subcircuit for sky130_fd_sc_hd__buf_4 abstract view
.subckt sky130_fd_sc_hd__buf_4 A VGND VNB VPB VPWR X
.ends

* Black-box entry subcircuit for sky130_fd_sc_hd__nor3b_1 abstract view
.subckt sky130_fd_sc_hd__nor3b_1 A B C_N VGND VNB VPB VPWR Y
.ends

* Black-box entry subcircuit for sky130_fd_sc_hd__or4bb_2 abstract view
.subckt sky130_fd_sc_hd__or4bb_2 A B C_N D_N VGND VNB VPB VPWR X
.ends

* Black-box entry subcircuit for sky130_fd_sc_hd__o22ai_2 abstract view
.subckt sky130_fd_sc_hd__o22ai_2 A1 A2 B1 B2 VGND VNB VPB VPWR Y
.ends

* Black-box entry subcircuit for sky130_fd_sc_hd__and3_2 abstract view
.subckt sky130_fd_sc_hd__and3_2 A B C VGND VNB VPB VPWR X
.ends

* Black-box entry subcircuit for sky130_fd_sc_hd__or4_1 abstract view
.subckt sky130_fd_sc_hd__or4_1 A B C D VGND VNB VPB VPWR X
.ends

* Black-box entry subcircuit for sky130_fd_sc_hd__or4_2 abstract view
.subckt sky130_fd_sc_hd__or4_2 A B C D VGND VNB VPB VPWR X
.ends

* Black-box entry subcircuit for sky130_fd_sc_hd__xor2_2 abstract view
.subckt sky130_fd_sc_hd__xor2_2 A B VGND VNB VPB VPWR X
.ends

* Black-box entry subcircuit for sky130_fd_sc_hd__o21bai_2 abstract view
.subckt sky130_fd_sc_hd__o21bai_2 A1 A2 B1_N VGND VNB VPB VPWR Y
.ends

* Black-box entry subcircuit for sky130_fd_sc_hd__or4b_2 abstract view
.subckt sky130_fd_sc_hd__or4b_2 A B C D_N VGND VNB VPB VPWR X
.ends

* Black-box entry subcircuit for sky130_fd_sc_hd__nand3b_1 abstract view
.subckt sky130_fd_sc_hd__nand3b_1 A_N B C VGND VNB VPB VPWR Y
.ends

* Black-box entry subcircuit for sky130_fd_sc_hd__a22oi_4 abstract view
.subckt sky130_fd_sc_hd__a22oi_4 A1 A2 B1 B2 VGND VNB VPB VPWR Y
.ends

* Black-box entry subcircuit for sky130_fd_sc_hd__buf_1 abstract view
.subckt sky130_fd_sc_hd__buf_1 A VGND VNB VPB VPWR X
.ends

* Black-box entry subcircuit for sky130_fd_sc_hd__nand3b_2 abstract view
.subckt sky130_fd_sc_hd__nand3b_2 A_N B C VGND VNB VPB VPWR Y
.ends

* Black-box entry subcircuit for sky130_fd_sc_hd__o221a_1 abstract view
.subckt sky130_fd_sc_hd__o221a_1 A1 A2 B1 B2 C1 VGND VNB VPB VPWR X
.ends

* Black-box entry subcircuit for sky130_fd_sc_hd__xor2_4 abstract view
.subckt sky130_fd_sc_hd__xor2_4 A B VGND VNB VPB VPWR X
.ends

* Black-box entry subcircuit for sky130_fd_sc_hd__or2_2 abstract view
.subckt sky130_fd_sc_hd__or2_2 A B VGND VNB VPB VPWR X
.ends

* Black-box entry subcircuit for sky130_fd_sc_hd__o31a_1 abstract view
.subckt sky130_fd_sc_hd__o31a_1 A1 A2 A3 B1 VGND VNB VPB VPWR X
.ends

* Black-box entry subcircuit for sky130_fd_sc_hd__and3b_1 abstract view
.subckt sky130_fd_sc_hd__and3b_1 A_N B C VGND VNB VPB VPWR X
.ends

* Black-box entry subcircuit for sky130_fd_sc_hd__or4bb_4 abstract view
.subckt sky130_fd_sc_hd__or4bb_4 A B C_N D_N VGND VNB VPB VPWR X
.ends

* Black-box entry subcircuit for sky130_fd_sc_hd__nor4_2 abstract view
.subckt sky130_fd_sc_hd__nor4_2 A B C D VGND VNB VPB VPWR Y
.ends

* Black-box entry subcircuit for sky130_fd_sc_hd__a32o_1 abstract view
.subckt sky130_fd_sc_hd__a32o_1 A1 A2 A3 B1 B2 VGND VNB VPB VPWR X
.ends

* Black-box entry subcircuit for sky130_fd_sc_hd__nand4_4 abstract view
.subckt sky130_fd_sc_hd__nand4_4 A B C D VGND VNB VPB VPWR Y
.ends

* Black-box entry subcircuit for sky130_fd_sc_hd__o311a_1 abstract view
.subckt sky130_fd_sc_hd__o311a_1 A1 A2 A3 B1 C1 VGND VNB VPB VPWR X
.ends

* Black-box entry subcircuit for sky130_fd_sc_hd__nand4b_1 abstract view
.subckt sky130_fd_sc_hd__nand4b_1 A_N B C D VGND VNB VPB VPWR Y
.ends

* Black-box entry subcircuit for sky130_fd_sc_hd__and4bb_2 abstract view
.subckt sky130_fd_sc_hd__and4bb_2 A_N B_N C D VGND VNB VPB VPWR X
.ends

* Black-box entry subcircuit for sky130_fd_sc_hd__a21boi_2 abstract view
.subckt sky130_fd_sc_hd__a21boi_2 A1 A2 B1_N VGND VNB VPB VPWR Y
.ends

* Black-box entry subcircuit for sky130_fd_sc_hd__nor3_4 abstract view
.subckt sky130_fd_sc_hd__nor3_4 A B C VGND VNB VPB VPWR Y
.ends

* Black-box entry subcircuit for sky130_fd_sc_hd__nand2_2 abstract view
.subckt sky130_fd_sc_hd__nand2_2 A B VGND VNB VPB VPWR Y
.ends

* Black-box entry subcircuit for sky130_fd_sc_hd__a31oi_2 abstract view
.subckt sky130_fd_sc_hd__a31oi_2 A1 A2 A3 B1 VGND VNB VPB VPWR Y
.ends

* Black-box entry subcircuit for sky130_fd_sc_hd__or4_4 abstract view
.subckt sky130_fd_sc_hd__or4_4 A B C D VGND VNB VPB VPWR X
.ends

* Black-box entry subcircuit for sky130_fd_sc_hd__a32oi_2 abstract view
.subckt sky130_fd_sc_hd__a32oi_2 A1 A2 A3 B1 B2 VGND VNB VPB VPWR Y
.ends

* Black-box entry subcircuit for sky130_fd_sc_hd__o21a_2 abstract view
.subckt sky130_fd_sc_hd__o21a_2 A1 A2 B1 VGND VNB VPB VPWR X
.ends

* Black-box entry subcircuit for sky130_fd_sc_hd__a311o_1 abstract view
.subckt sky130_fd_sc_hd__a311o_1 A1 A2 A3 B1 C1 VGND VNB VPB VPWR X
.ends

* Black-box entry subcircuit for sky130_fd_sc_hd__a2bb2oi_2 abstract view
.subckt sky130_fd_sc_hd__a2bb2oi_2 A1_N A2_N B1 B2 VGND VNB VPB VPWR Y
.ends

.subckt mul_32 A[0] A[10] A[11] A[12] A[13] A[14] A[15] A[16] A[17] A[18] A[19] A[1]
+ A[20] A[21] A[22] A[23] A[24] A[25] A[26] A[27] A[28] A[29] A[2] A[30] A[31] A[3]
+ A[4] A[5] A[6] A[7] A[8] A[9] B[0] B[10] B[11] B[12] B[13] B[14] B[15] B[16] B[17]
+ B[18] B[19] B[1] B[20] B[21] B[22] B[23] B[24] B[25] B[26] B[27] B[28] B[29] B[2]
+ B[30] B[31] B[3] B[4] B[5] B[6] B[7] B[8] B[9] C[0] C[10] C[11] C[12] C[13] C[14]
+ C[15] C[16] C[17] C[18] C[19] C[1] C[20] C[21] C[22] C[23] C[24] C[25] C[26] C[27]
+ C[28] C[29] C[2] C[30] C[31] C[32] C[33] C[34] C[35] C[36] C[37] C[38] C[39] C[3]
+ C[40] C[41] C[42] C[43] C[44] C[45] C[46] C[47] C[48] C[49] C[4] C[50] C[51] C[52]
+ C[53] C[54] C[55] C[56] C[57] C[58] C[59] C[5] C[60] C[61] C[62] C[63] C[6] C[7]
+ C[8] C[9] VGND VPWR clk
XFILLER_79_391 VGND VGND VPWR VPWR sky130_fd_sc_hd__fill_1
X_05903_ net439 net346 net224 net183 VGND VGND VPWR VPWR _05035_ sky130_fd_sc_hd__and4_1
X_06883_ _00737_ _00738_ _00718_ VGND VGND VPWR VPWR _00741_ sky130_fd_sc_hd__a21oi_1
X_09671_ _03625_ _03780_ VGND VGND VPWR VPWR _03781_ sky130_fd_sc_hd__nand2b_1
XFILLER_94_394 VGND VGND VPWR VPWR sky130_fd_sc_hd__fill_2
XFILLER_67_597 VGND VGND VPWR VPWR sky130_fd_sc_hd__fill_1
X_08622_ _02634_ _02635_ _02636_ VGND VGND VPWR VPWR _02637_ sky130_fd_sc_hd__nand3_1
X_05834_ _04964_ _04965_ _04966_ VGND VGND VPWR VPWR _04967_ sky130_fd_sc_hd__nand3_2
X_08553_ net383 net308 net293 net464 VGND VGND VPWR VPWR _02561_ sky130_fd_sc_hd__a22o_1
XTAP_TAPCELL_ROW_53_916 VGND VPWR sky130_fd_sc_hd__tapvpwrvgnd_1
X_05765_ _04863_ _04864_ _04897_ _04898_ VGND VGND VPWR VPWR _04899_ sky130_fd_sc_hd__or4bb_1
X_07504_ _01413_ _01414_ _01412_ VGND VGND VPWR VPWR _01416_ sky130_fd_sc_hd__o21ai_1
X_08484_ _02465_ _02484_ _02485_ VGND VGND VPWR VPWR _02486_ sky130_fd_sc_hd__nand3_2
X_07435_ _01320_ _01339_ _01340_ VGND VGND VPWR VPWR _01341_ sky130_fd_sc_hd__and3_1
XFILLER_52_29 VGND VGND VPWR VPWR sky130_fd_sc_hd__decap_8
X_05696_ _03417_ _03788_ _03777_ VGND VGND VPWR VPWR _04526_ sky130_fd_sc_hd__a21bo_1
XFILLER_23_656 VPWR VGND VPWR VGND sky130_ef_sc_hd__decap_12
XFILLER_22_155 VPWR VGND VPWR VGND sky130_ef_sc_hd__decap_12
XTAP_TAPCELL_ROW_33_673 VGND VPWR sky130_fd_sc_hd__tapvpwrvgnd_1
X_07366_ _01264_ _01265_ VGND VGND VPWR VPWR _01266_ sky130_fd_sc_hd__or2_1
XFILLER_108_216 VGND VGND VPWR VPWR sky130_fd_sc_hd__fill_2
X_07297_ _01186_ _01188_ _01031_ _01034_ VGND VGND VPWR VPWR _01191_ sky130_fd_sc_hd__o211ai_2
X_06317_ _00135_ _00136_ VGND VGND VPWR VPWR _00138_ sky130_fd_sc_hd__xor2_1
X_09105_ _03161_ _03162_ _03163_ VGND VGND VPWR VPWR _03164_ sky130_fd_sc_hd__a21o_1
X_06248_ _00046_ _00067_ _00068_ VGND VGND VPWR VPWR _00069_ sky130_fd_sc_hd__nor3_1
X_09036_ net177 net305 net290 net221 VGND VGND VPWR VPWR _03089_ sky130_fd_sc_hd__a22o_1
XFILLER_104_400 VPWR VGND VPWR VGND sky130_ef_sc_hd__decap_12
X_06179_ net254 net172 VGND VGND VPWR VPWR _00001_ sky130_fd_sc_hd__nand2_1
XFILLER_117_55 VGND VGND VPWR VPWR sky130_fd_sc_hd__fill_1
XFILLER_77_15 VPWR VGND VPWR VGND sky130_ef_sc_hd__decap_12
XFILLER_104_477 VGND VGND VPWR VPWR sky130_fd_sc_hd__decap_8
XTAP_TAPCELL_ROW_5_321 VGND VPWR sky130_fd_sc_hd__tapvpwrvgnd_1
X_09938_ _04068_ _04069_ VGND VGND VPWR VPWR _04071_ sky130_fd_sc_hd__xnor2_1
X_09869_ net175 net243 VGND VGND VPWR VPWR _03996_ sky130_fd_sc_hd__nand2_1
XFILLER_58_597 VPWR VGND VPWR VGND sky130_ef_sc_hd__decap_12
XFILLER_61_707 VGND VGND VPWR VPWR sky130_fd_sc_hd__fill_1
XFILLER_45_258 VGND VGND VPWR VPWR sky130_fd_sc_hd__decap_4
XFILLER_26_52 VGND VGND VPWR VPWR sky130_fd_sc_hd__decap_8
XFILLER_26_472 VGND VGND VPWR VPWR sky130_fd_sc_hd__decap_4
XFILLER_26_483 VGND VGND VPWR VPWR sky130_fd_sc_hd__fill_1
XFILLER_14_645 VPWR VGND VPWR VGND sky130_ef_sc_hd__decap_12
XFILLER_9_137 VPWR VGND VPWR VGND sky130_ef_sc_hd__decap_12
X_10644_ _04831_ _04832_ VGND VGND VPWR VPWR _04833_ sky130_fd_sc_hd__nor2_1
X_10575_ _04757_ _04758_ VGND VGND VPWR VPWR _04760_ sky130_fd_sc_hd__xnor2_1
XFILLER_42_73 VGND VGND VPWR VPWR sky130_fd_sc_hd__fill_2
XFILLER_107_293 VPWR VGND VPWR VGND sky130_ef_sc_hd__decap_12
XFILLER_49_542 VPWR VGND VPWR VGND sky130_ef_sc_hd__decap_12
XTAP_TAPCELL_ROW_108_1605 VGND VPWR sky130_fd_sc_hd__tapvpwrvgnd_1
XFILLER_64_501 VPWR VGND VPWR VGND sky130_ef_sc_hd__decap_12
XFILLER_91_320 VGND VGND VPWR VPWR sky130_fd_sc_hd__fill_1
XFILLER_76_372 VGND VGND VPWR VPWR sky130_fd_sc_hd__decap_8
X_10009_ net338 net530 _04145_ _04147_ VGND VGND VPWR VPWR _04148_ sky130_fd_sc_hd__a22o_1
XFILLER_36_236 VGND VGND VPWR VPWR sky130_fd_sc_hd__fill_1
XFILLER_36_247 VGND VGND VPWR VPWR sky130_fd_sc_hd__decap_4
XFILLER_64_589 VGND VGND VPWR VPWR sky130_fd_sc_hd__fill_1
X_05550_ _02348_ _02435_ _02424_ VGND VGND VPWR VPWR _02938_ sky130_fd_sc_hd__a21bo_1
XTAP_TAPCELL_ROW_67_1092 VGND VPWR sky130_fd_sc_hd__tapvpwrvgnd_1
X_05481_ _01791_ _01813_ _01780_ VGND VGND VPWR VPWR _02184_ sky130_fd_sc_hd__o21ba_1
X_07220_ _01106_ _01105_ VGND VGND VPWR VPWR _01107_ sky130_fd_sc_hd__and2b_1
X_07151_ _01027_ _01029_ _01030_ VGND VGND VPWR VPWR _01032_ sky130_fd_sc_hd__a21o_1
XFILLER_9_671 VGND VGND VPWR VPWR sky130_fd_sc_hd__fill_1
XTAP_TAPCELL_ROW_30_632 VGND VPWR sky130_fd_sc_hd__tapvpwrvgnd_1
XFILLER_118_525 VGND VGND VPWR VPWR sky130_fd_sc_hd__decap_6
XTAP_TAPCELL_ROW_119_1756 VGND VPWR sky130_fd_sc_hd__tapvpwrvgnd_1
XTAP_TAPCELL_ROW_119_1745 VGND VPWR sky130_fd_sc_hd__tapvpwrvgnd_1
X_06102_ _05136_ _05138_ _05230_ _05231_ VGND VGND VPWR VPWR _05232_ sky130_fd_sc_hd__o211ai_2
XFILLER_8_181 VPWR VGND VPWR VGND sky130_ef_sc_hd__decap_12
XFILLER_118_569 VPWR VGND VPWR VGND sky130_ef_sc_hd__decap_12
X_07082_ _00814_ _00816_ VGND VGND VPWR VPWR _00956_ sky130_fd_sc_hd__nand2_1
X_06033_ _05157_ _05162_ VGND VGND VPWR VPWR _05163_ sky130_fd_sc_hd__or2_1
XFILLER_99_442 VGND VGND VPWR VPWR sky130_fd_sc_hd__decap_6
XFILLER_99_431 VGND VGND VPWR VPWR sky130_fd_sc_hd__decap_4
XFILLER_87_615 VGND VGND VPWR VPWR sky130_fd_sc_hd__fill_1
XFILLER_87_659 VGND VGND VPWR VPWR sky130_fd_sc_hd__decap_3
X_07984_ net178 net369 _01938_ _01939_ VGND VGND VPWR VPWR _01940_ sky130_fd_sc_hd__a22o_1
X_06935_ net491 net333 net326 net498 VGND VGND VPWR VPWR _00797_ sky130_fd_sc_hd__a22o_1
XFILLER_74_309 VGND VGND VPWR VPWR sky130_fd_sc_hd__decap_8
XFILLER_67_361 VGND VGND VPWR VPWR sky130_fd_sc_hd__decap_8
X_09723_ _03685_ _03688_ _03836_ _03837_ VGND VGND VPWR VPWR _03838_ sky130_fd_sc_hd__a211o_1
XFILLER_95_692 VPWR VGND VPWR VGND sky130_ef_sc_hd__decap_12
X_06866_ net216 net617 VGND VGND VPWR VPWR _00722_ sky130_fd_sc_hd__nand2_1
XFILLER_27_225 VGND VGND VPWR VPWR sky130_fd_sc_hd__decap_8
X_09654_ net583 net312 VGND VGND VPWR VPWR _03762_ sky130_fd_sc_hd__nand2_1
XFILLER_103_57 VPWR VGND VPWR VGND sky130_ef_sc_hd__decap_12
X_08605_ _02484_ _02486_ net157 _02617_ VGND VGND VPWR VPWR _02618_ sky130_fd_sc_hd__a211oi_4
XTAP_TAPCELL_ROW_38_732 VGND VPWR sky130_fd_sc_hd__tapvpwrvgnd_1
X_05817_ _04940_ _04948_ VGND VGND VPWR VPWR _04950_ sky130_fd_sc_hd__xnor2_1
X_06797_ net611 net318 VGND VGND VPWR VPWR _00646_ sky130_fd_sc_hd__nand2_1
XFILLER_70_537 VGND VGND VPWR VPWR sky130_fd_sc_hd__fill_1
X_09585_ net297 net242 VGND VGND VPWR VPWR _03687_ sky130_fd_sc_hd__nand2_1
XFILLER_42_217 VGND VGND VPWR VPWR sky130_fd_sc_hd__decap_6
X_08536_ net457 net263 _02540_ _02541_ VGND VGND VPWR VPWR _02542_ sky130_fd_sc_hd__o2bb2a_1
X_05748_ net439 net346 net386 net300 VGND VGND VPWR VPWR _04882_ sky130_fd_sc_hd__and4_1
X_08467_ net401 net593 VGND VGND VPWR VPWR _02467_ sky130_fd_sc_hd__nand2_1
XFILLER_11_615 VGND VGND VPWR VPWR sky130_fd_sc_hd__fill_1
XFILLER_11_604 VGND VGND VPWR VPWR sky130_fd_sc_hd__decap_3
X_05679_ net349 net467 net386 net33 VGND VGND VPWR VPWR _04342_ sky130_fd_sc_hd__a22oi_2
X_08398_ net482 net251 _02389_ VGND VGND VPWR VPWR _02392_ sky130_fd_sc_hd__nand3_1
X_07418_ net236 net233 net574 net567 VGND VGND VPWR VPWR _01323_ sky130_fd_sc_hd__and4_1
XFILLER_50_261 VGND VGND VPWR VPWR sky130_fd_sc_hd__decap_8
X_07349_ _01085_ _01088_ _01244_ _01247_ VGND VGND VPWR VPWR _01248_ sky130_fd_sc_hd__a211o_1
XTAP_TAPCELL_ROW_94_1439 VGND VPWR sky130_fd_sc_hd__tapvpwrvgnd_1
XTAP_TAPCELL_ROW_94_1428 VGND VPWR sky130_fd_sc_hd__tapvpwrvgnd_1
XFILLER_12_65 VPWR VGND VPWR VGND sky130_ef_sc_hd__decap_12
X_10360_ _04527_ _04528_ VGND VGND VPWR VPWR _04529_ sky130_fd_sc_hd__nor2_1
X_09019_ _03067_ _03068_ net549 net263 VGND VGND VPWR VPWR _03071_ sky130_fd_sc_hd__and4bb_1
X_10291_ _04309_ _04453_ _04454_ _04379_ VGND VGND VPWR VPWR _04455_ sky130_fd_sc_hd__o22ai_1
XFILLER_104_285 VGND VGND VPWR VPWR sky130_fd_sc_hd__fill_1
XFILLER_78_648 VGND VGND VPWR VPWR sky130_fd_sc_hd__fill_2
XFILLER_92_106 VGND VGND VPWR VPWR sky130_fd_sc_hd__decap_8
XFILLER_77_169 VGND VGND VPWR VPWR sky130_fd_sc_hd__decap_8
XFILLER_92_128 VGND VGND VPWR VPWR sky130_fd_sc_hd__fill_1
XFILLER_73_320 VGND VGND VPWR VPWR sky130_fd_sc_hd__fill_1
XFILLER_46_512 VGND VGND VPWR VPWR sky130_fd_sc_hd__decap_6
XFILLER_18_203 VGND VGND VPWR VPWR sky130_fd_sc_hd__fill_1
XFILLER_73_331 VGND VGND VPWR VPWR sky130_fd_sc_hd__decap_4
XFILLER_46_589 VPWR VGND VPWR VGND sky130_ef_sc_hd__decap_12
XFILLER_61_559 VGND VGND VPWR VPWR sky130_fd_sc_hd__fill_1
XTAP_TAPCELL_ROW_103_1546 VGND VPWR sky130_fd_sc_hd__tapvpwrvgnd_1
XTAP_TAPCELL_ROW_16_459 VGND VPWR sky130_fd_sc_hd__tapvpwrvgnd_1
XFILLER_41_261 VGND VGND VPWR VPWR sky130_fd_sc_hd__decap_4
XFILLER_41_272 VGND VGND VPWR VPWR sky130_fd_sc_hd__decap_8
XFILLER_10_681 VPWR VGND VPWR VGND sky130_ef_sc_hd__decap_12
X_10627_ _04789_ _04793_ _04814_ VGND VGND VPWR VPWR _04815_ sky130_fd_sc_hd__o21a_1
X_10558_ _04695_ _04700_ _04739_ VGND VGND VPWR VPWR _04742_ sky130_fd_sc_hd__a21oi_1
X_10489_ _04665_ _04666_ VGND VGND VPWR VPWR _04669_ sky130_fd_sc_hd__nor2_1
XTAP_TAPCELL_ROW_114_1686 VGND VPWR sky130_fd_sc_hd__tapvpwrvgnd_1
XFILLER_69_615 VGND VGND VPWR VPWR sky130_fd_sc_hd__fill_1
XFILLER_68_125 VPWR VGND VPWR VGND sky130_ef_sc_hd__decap_12
XFILLER_68_114 VGND VGND VPWR VPWR sky130_fd_sc_hd__decap_4
XFILLER_96_489 VGND VGND VPWR VPWR sky130_fd_sc_hd__decap_4
X_06720_ _00559_ _00561_ _00544_ VGND VGND VPWR VPWR _00563_ sky130_fd_sc_hd__a21o_1
XFILLER_77_681 VGND VGND VPWR VPWR sky130_fd_sc_hd__fill_1
XTAP_TAPCELL_ROW_69_1121 VGND VPWR sky130_fd_sc_hd__tapvpwrvgnd_1
XFILLER_92_651 VPWR VGND VPWR VGND sky130_ef_sc_hd__decap_12
XFILLER_92_640 VGND VGND VPWR VPWR sky130_fd_sc_hd__decap_4
X_06651_ _00486_ _00487_ VGND VGND VPWR VPWR _00488_ sky130_fd_sc_hd__or2_1
XFILLER_76_180 VGND VGND VPWR VPWR sky130_fd_sc_hd__decap_3
XFILLER_64_353 VGND VGND VPWR VPWR sky130_fd_sc_hd__decap_8
X_05602_ _03439_ _03494_ VGND VGND VPWR VPWR _03505_ sky130_fd_sc_hd__nand2b_1
X_06582_ _00410_ _00411_ VGND VGND VPWR VPWR _00412_ sky130_fd_sc_hd__nor2_1
X_09370_ _03332_ _03335_ VGND VGND VPWR VPWR _03453_ sky130_fd_sc_hd__nor2_1
X_08321_ _02305_ _02306_ _02307_ VGND VGND VPWR VPWR _02308_ sky130_fd_sc_hd__or3_1
X_05533_ _02654_ _02741_ VGND VGND VPWR VPWR _02752_ sky130_fd_sc_hd__nand2b_1
X_08252_ _02230_ _02231_ VGND VGND VPWR VPWR _02232_ sky130_fd_sc_hd__xnor2_1
X_05464_ _01867_ _01878_ _01988_ VGND VGND VPWR VPWR _01999_ sky130_fd_sc_hd__nor3_2
X_07203_ _01086_ _01087_ VGND VGND VPWR VPWR _01088_ sky130_fd_sc_hd__or2_1
XTAP_TAPCELL_ROW_43_790 VGND VPWR sky130_fd_sc_hd__tapvpwrvgnd_1
XFILLER_118_333 VPWR VGND VPWR VGND sky130_ef_sc_hd__decap_12
X_08183_ _01992_ _01994_ _01993_ VGND VGND VPWR VPWR _02157_ sky130_fd_sc_hd__o21bai_1
X_05395_ _01224_ _01235_ VGND VGND VPWR VPWR _01246_ sky130_fd_sc_hd__and2_1
X_07134_ net215 net595 VGND VGND VPWR VPWR _01013_ sky130_fd_sc_hd__nand2_1
XFILLER_118_377 VGND VGND VPWR VPWR sky130_fd_sc_hd__decap_8
X_07065_ _00917_ _00936_ VGND VGND VPWR VPWR _00938_ sky130_fd_sc_hd__xnor2_1
X_06016_ _05144_ _05145_ _04996_ VGND VGND VPWR VPWR _05147_ sky130_fd_sc_hd__a21o_1
XFILLER_102_701 VGND VGND VPWR VPWR sky130_fd_sc_hd__decap_3
XFILLER_99_261 VPWR VGND VPWR VGND sky130_ef_sc_hd__decap_12
XFILLER_87_423 VGND VGND VPWR VPWR sky130_fd_sc_hd__fill_1
X_07967_ _01919_ _01920_ VGND VGND VPWR VPWR _01921_ sky130_fd_sc_hd__and2b_1
XFILLER_59_169 VPWR VGND VPWR VGND sky130_ef_sc_hd__decap_12
XFILLER_59_158 VGND VGND VPWR VPWR sky130_fd_sc_hd__decap_3
X_06918_ _00777_ VGND VGND VPWR VPWR _00779_ sky130_fd_sc_hd__inv_2
XFILLER_87_489 VPWR VGND VPWR VGND sky130_ef_sc_hd__decap_12
XFILLER_74_139 VGND VGND VPWR VPWR sky130_fd_sc_hd__fill_1
X_09706_ _03818_ VGND VGND VPWR VPWR _03819_ sky130_fd_sc_hd__inv_2
X_07898_ _01843_ _01844_ _01666_ _01669_ VGND VGND VPWR VPWR _01847_ sky130_fd_sc_hd__a211o_1
XFILLER_74_27 VGND VGND VPWR VPWR sky130_fd_sc_hd__fill_1
XFILLER_16_707 VGND VGND VPWR VPWR sky130_fd_sc_hd__fill_1
XFILLER_83_673 VPWR VGND VPWR VGND sky130_ef_sc_hd__decap_12
XFILLER_83_662 VGND VGND VPWR VPWR sky130_fd_sc_hd__decap_8
X_06849_ _00700_ _00701_ _00685_ VGND VGND VPWR VPWR _00704_ sky130_fd_sc_hd__a21oi_1
XFILLER_55_386 VGND VGND VPWR VPWR sky130_fd_sc_hd__decap_6
XFILLER_55_375 VGND VGND VPWR VPWR sky130_fd_sc_hd__fill_1
X_09637_ net376 net513 VGND VGND VPWR VPWR _03743_ sky130_fd_sc_hd__nand2_1
XFILLER_43_515 VGND VGND VPWR VPWR sky130_fd_sc_hd__fill_1
X_09568_ _03561_ _03665_ _03666_ VGND VGND VPWR VPWR _03669_ sky130_fd_sc_hd__and3_1
X_08519_ _02377_ _02524_ VGND VGND VPWR VPWR _02525_ sky130_fd_sc_hd__xnor2_1
XFILLER_23_250 VPWR VGND VPWR VGND sky130_ef_sc_hd__decap_12
XTAP_TAPCELL_ROW_13_418 VGND VPWR sky130_fd_sc_hd__tapvpwrvgnd_1
X_09499_ _03582_ _03591_ _03593_ VGND VGND VPWR VPWR _03594_ sky130_fd_sc_hd__and3_1
XFILLER_23_20 VPWR VGND VPWR VGND sky130_ef_sc_hd__decap_12
XFILLER_7_405 VPWR VGND VPWR VGND sky130_ef_sc_hd__decap_12
XFILLER_23_294 VGND VGND VPWR VPWR sky130_fd_sc_hd__decap_4
XFILLER_7_449 VGND VGND VPWR VPWR sky130_fd_sc_hd__decap_6
X_10412_ _04503_ _04566_ _04565_ VGND VGND VPWR VPWR _04585_ sky130_fd_sc_hd__o21ai_2
XFILLER_109_399 VGND VGND VPWR VPWR sky130_fd_sc_hd__fill_1
XFILLER_99_57 VPWR VGND VPWR VGND sky130_ef_sc_hd__decap_12
X_10343_ _04368_ _04437_ _04439_ VGND VGND VPWR VPWR _04511_ sky130_fd_sc_hd__o21ai_1
XFILLER_2_121 VPWR VGND VPWR VGND sky130_ef_sc_hd__decap_12
XFILLER_105_572 VGND VGND VPWR VPWR sky130_fd_sc_hd__fill_1
XFILLER_2_165 VGND VGND VPWR VPWR sky130_fd_sc_hd__decap_8
X_10274_ _04389_ _04435_ VGND VGND VPWR VPWR _04436_ sky130_fd_sc_hd__nor2_1
XFILLER_105_594 VPWR VGND VPWR VGND sky130_ef_sc_hd__decap_12
XFILLER_78_445 VPWR VGND VPWR VGND sky130_ef_sc_hd__decap_12
Xfanout491 net492 VGND VGND VPWR VPWR net491 sky130_fd_sc_hd__buf_2
XFILLER_93_437 VGND VGND VPWR VPWR sky130_fd_sc_hd__fill_1
XFILLER_65_128 VGND VGND VPWR VPWR sky130_fd_sc_hd__decap_8